*$Id: rhipob.scs 125 2014-12-17 15:11:15Z apotupchik $ 
* ----------------------------------------------------------------------
************* Mikron ******** MODEL PARAMETERS ***************************
* ----------------------------------------------------------------------
* Simulator : spectre
* Device    : rhipob
* Model     : subckt RES
* Process   : SOI 0.18u
* Revision  : 0.1; 2012-09-14
* ----------------------------------------------------------------------
*                        RTYP MEAN CONDITION
* ----------------------------------------------------------------------
*subckt rhipob PLUS MINUS  
*parameters w=1e-6 l=1e-6 nc=floor((w+0.32e-6-2*0.02e-6)/(0.24e-6+0.32e-6))
*//---------------------------------------------------------------------
*// Parameters of rpolyh Model RPO1H corner typ
*//---------------------------------------------------------------------
*+ rsc        = 11.000
*+ rsc_typ    = 11.00
*+ rhs        = 8
*+ rhs_typ    = 8
*+ rho        = 1000.0
*+ rho_typ    = 1000.0
*+ rhi        = 50e-6
*+ rhi_typ    = 50e-6
*+ rhu        = 108
*+ rhu_typ    = 108
*+ lhu        = 0.34e-6
*+ dl         = 0.0e-6
*+ dl_typ     = 0.0e-6
*+ dw         = -11e-9
*+ dw_typ     = -11e-9
*+ lhs        = 0.28e-6
*+ tc1        = -8.901e-4
*+ tc2        = 1.755e-6
*+ wcon       = 0.24e-6
*+ scon       = 0.32e-6
*+ cep        = 0.02e-6
*+ lper       = 0
*//---------------------------------------------------------------------
*// Equations 
*//---------------------------------------------------------------------
*+ rt_typ     = rsc_typ/nc+(rhu_typ*(lhu+0.5*dl_typ)+rhs_typ*lhs+rhi_typ)/(w-dw_typ)
*+ r 	     = (l-dl_typ)*rho_typ/(w-dw_typ)+2*rt_typ
*+ rt         = rhu*(lhu+0.5*dl)+rhs*lhs+rhi
*+ rhead      = (rsc/nc)+(rt/(w-dw))
*+ rbody      = (dl_typ-dl+(r-2*rt_typ)*(w-dw_typ)/rho_typ)*rho/(w-dw)
*+ rtotal     = 2*rhead*(1-lper)+rbody
*//---------------------------------------------------------------------
*// netlist
*//---------------------------------------------------------------------
*//
*RES  (PLUS MINUS) resistor  r= rtotal tc1=tc1 tc2=tc2 
*
*ends rhipob

.model rhipob R

*
